Version 4
SHEET 1 880 680
WIRE 112 96 -16 96
WIRE 256 96 208 96
WIRE 352 96 256 96
WIRE 352 160 352 96
WIRE -16 192 -16 96
WIRE -16 192 -128 192
WIRE 16 192 -16 192
WIRE 160 192 160 160
WIRE 160 192 96 192
WIRE -128 208 -128 192
WIRE 160 224 160 192
FLAG 160 288 0
FLAG -128 288 0
FLAG 352 240 0
FLAG 256 160 0
SYMBOL npn 112 160 R270
SYMATTR InstName Q1
SYMBOL res 112 176 R90
WINDOW 0 0 56 VBottom 2
WINDOW 3 32 56 VTop 2
SYMATTR InstName R1
SYMATTR Value 3k3
SYMBOL cap 144 224 R0
SYMATTR InstName C1
SYMATTR Value 47µ
SYMBOL voltage -128 192 R0
WINDOW 3 28 98 Left 2
WINDOW 123 24 124 Left 2
WINDOW 39 24 152 Left 2
SYMATTR InstName V1
SYMATTR Value PULSE(0 30 10m 2m 0 1 0 1)
SYMBOL current 352 160 R0
WINDOW 123 0 0 Left 0
WINDOW 39 0 0 Left 0
SYMATTR InstName I1
SYMATTR Value 22m
SYMBOL cap 240 96 R0
SYMATTR InstName C2
SYMATTR Value 10µ
TEXT -282 132 Left 2 !.tran 0 1 0 100u
