Version 4
SHEET 1 1608 896
WIRE 624 -128 176 -128
WIRE 768 -128 624 -128
WIRE 1008 -128 768 -128
WIRE 1168 -128 1008 -128
WIRE 1296 -128 1168 -128
WIRE 1472 -128 1296 -128
WIRE 1296 -96 1296 -128
WIRE 624 -80 624 -128
WIRE 768 -32 768 -48
WIRE 768 -32 688 -32
WIRE 176 0 176 -128
WIRE 176 0 32 0
WIRE 768 0 768 -32
WIRE 1472 0 1472 -128
WIRE 32 48 32 0
WIRE 624 48 624 16
WIRE 704 48 624 48
WIRE 176 96 176 80
WIRE 176 96 96 96
WIRE 1472 112 1472 80
WIRE 176 128 176 96
WIRE 768 160 768 96
WIRE 768 160 688 160
WIRE 32 176 32 144
WIRE 112 176 32 176
WIRE 1008 192 1008 -128
WIRE 688 208 688 160
WIRE 848 240 768 240
WIRE 944 240 848 240
WIRE 1168 240 1168 -128
WIRE 768 256 768 240
WIRE 848 272 848 240
WIRE 1040 288 1008 288
WIRE 1104 288 1040 288
WIRE 688 304 688 288
WIRE 704 304 688 304
WIRE 688 320 688 304
WIRE 1040 320 1040 288
WIRE 176 336 176 224
WIRE 96 384 96 336
WIRE 256 384 256 336
WIRE 768 400 768 352
WIRE 768 400 688 400
WIRE 848 400 848 336
WIRE 848 400 768 400
WIRE -96 432 -192 432
WIRE 0 432 -32 432
WIRE 16 432 0 432
WIRE 32 432 16 432
WIRE 336 432 320 432
WIRE 384 432 336 432
WIRE 1040 432 1040 400
WIRE 1040 432 464 432
WIRE 1104 432 1040 432
WIRE 1168 432 1168 416
WIRE 1168 432 1104 432
WIRE 1472 432 1168 432
WIRE -320 448 -320 432
WIRE -192 448 -192 432
WIRE 336 448 336 432
WIRE 1168 448 1168 432
WIRE 1472 448 1472 432
WIRE 672 464 592 464
WIRE 768 464 768 400
WIRE 768 464 736 464
WIRE 1040 464 1040 432
WIRE 0 480 0 432
WIRE 768 544 768 464
WIRE 848 544 768 544
WIRE 944 544 848 544
WIRE 96 560 96 480
WIRE 464 560 96 560
WIRE 592 560 592 464
WIRE 592 560 464 560
WIRE 768 560 768 544
WIRE 1040 576 1040 544
WIRE 1040 576 1008 576
WIRE 1104 576 1040 576
WIRE 256 592 256 480
WIRE 256 592 176 592
WIRE 96 608 96 560
WIRE 256 608 256 592
WIRE 688 608 656 608
WIRE 704 608 688 608
WIRE 944 624 944 544
WIRE 656 640 656 608
WIRE 176 656 176 592
WIRE 176 656 160 656
WIRE 192 656 176 656
WIRE 768 688 768 656
WIRE 96 720 96 704
WIRE 256 720 256 704
WIRE 256 800 96 800
WIRE 656 800 656 720
WIRE 656 800 256 800
WIRE 768 800 768 768
WIRE 768 800 656 800
WIRE 1008 800 1008 672
WIRE 1008 800 768 800
WIRE 1168 800 1168 624
WIRE 1168 800 1008 800
WIRE 1296 800 1296 752
WIRE 1296 800 1168 800
WIRE 1472 800 1472 704
WIRE 1472 800 1296 800
FLAG 32 256 0
FLAG 656 512 0
FLAG 336 528 0
FLAG 624 128 0
FLAG 1472 112 0
FLAG 1472 624 0
FLAG 0 560 0
FLAG 1104 432 output
FLAG 1472 -128 V+
FLAG 1472 800 V-
FLAG 848 240 bias+
FLAG 848 544 bias-
FLAG 464 560 preVAS
FLAG 336 432 fb
FLAG 1472 528 0
FLAG 688 608 base
FLAG 16 432 in
FLAG 1296 -32 0
FLAG 1296 688 0
FLAG -192 528 0
FLAG -320 528 0
SYMBOL pnp 96 144 R180
SYMATTR InstName Q1
SYMATTR Value 2N2907
SYMBOL pnp 112 224 M180
SYMATTR InstName Q2
SYMATTR Value 2N2907
SYMBOL res 160 -16 R0
SYMATTR InstName R1
SYMATTR Value 680
SYMBOL res 16 160 R0
SYMATTR InstName R2
SYMATTR Value 27k
SYMBOL res 272 320 R90
WINDOW 0 0 56 VBottom 2
WINDOW 3 32 56 VTop 2
SYMATTR InstName R3
SYMATTR Value 470
SYMBOL res 192 320 R90
WINDOW 0 0 56 VBottom 2
WINDOW 3 32 56 VTop 2
SYMATTR InstName R4
SYMATTR Value 470
SYMBOL pnp 32 480 M180
SYMATTR InstName Q3
SYMATTR Value 2N2907
SYMBOL pnp 320 480 R180
SYMATTR InstName Q4
SYMATTR Value 2N2907
SYMBOL npn 160 608 M0
SYMATTR InstName Q5
SYMBOL npn 192 608 R0
SYMATTR InstName Q6
SYMBOL res 80 704 R0
SYMATTR InstName R5
SYMATTR Value 430
SYMBOL res 240 704 R0
SYMATTR InstName R6
SYMATTR Value 430
SYMBOL npn 592 512 R0
SYMATTR InstName Q7
SYMBOL npn 704 560 R0
SYMATTR InstName Q8
SYMBOL res 640 624 R0
SYMATTR InstName R7
SYMATTR Value 2k2
SYMBOL cap 736 448 R90
WINDOW 0 0 32 VBottom 2
WINDOW 3 32 32 VTop 2
SYMATTR InstName C1
SYMATTR Value 30p
SYMBOL pnp 944 672 M180
SYMATTR InstName Q9
SYMBOL pnp 1104 624 M180
SYMATTR InstName Q10
SYMATTR Value 2SAR583D3
SYMBOL res 1152 432 R0
SYMATTR InstName R8
SYMATTR Value 1
SYMBOL res 1152 320 R0
SYMATTR InstName R9
SYMATTR Value 1
SYMBOL npn 1104 240 R0
SYMATTR InstName Q11
SYMATTR Value 2SCR583D3
SYMBOL npn 944 192 R0
SYMATTR InstName Q12
SYMBOL res 1056 304 M0
SYMATTR InstName R10
SYMATTR Value 33
SYMBOL res 1056 448 M0
SYMATTR InstName R11
SYMATTR Value 33
SYMBOL res 320 432 R0
SYMATTR InstName R12
SYMATTR Value 2k2
SYMBOL res 480 416 R90
WINDOW 0 0 56 VBottom 2
WINDOW 3 32 56 VTop 2
SYMATTR InstName R13
SYMATTR Value 20k
SYMBOL npn 704 256 R0
SYMATTR InstName Q13
SYMBOL res 704 304 M0
SYMATTR InstName R14
SYMATTR Value 1k03
SYMBOL res 704 192 M0
SYMATTR InstName R15
SYMATTR Value 2k2
SYMBOL pnp 688 16 R180
SYMATTR InstName Q14
SYMBOL pnp 704 96 M180
SYMATTR InstName Q15
SYMBOL res 752 -144 R0
SYMATTR InstName R16
SYMATTR Value 68
SYMBOL res 608 32 R0
SYMATTR InstName R17
SYMATTR Value 27k
SYMBOL voltage 1472 -16 R0
WINDOW 123 0 0 Left 0
WINDOW 39 24 124 Left 2
SYMATTR SpiceLine Rser=3.7
SYMATTR InstName V3
SYMATTR Value 30
SYMBOL voltage 1472 608 R0
WINDOW 123 0 0 Left 0
WINDOW 39 24 124 Left 2
SYMATTR SpiceLine Rser=3.7
SYMATTR InstName V4
SYMATTR Value 30
SYMBOL res -16 464 R0
SYMATTR InstName R18
SYMATTR Value 20k
SYMBOL res 1456 432 R0
SYMATTR InstName R19
SYMATTR Value 250
SYMBOL res 752 672 R0
SYMATTR InstName R20
SYMATTR Value 22
SYMBOL cap 1280 -96 R0
SYMATTR InstName C2
SYMATTR Value 100µ
SYMBOL cap 1280 688 R0
SYMATTR InstName C3
SYMATTR Value 100µ
SYMBOL voltage -192 432 R0
WINDOW 3 24 152 Left 2
WINDOW 123 24 124 Left 2
WINDOW 39 0 0 Left 0
SYMATTR Value SINE(0 0.2 1k)
SYMATTR InstName V5
SYMBOL cap -32 416 R90
WINDOW 0 0 32 VBottom 2
WINDOW 3 32 32 VTop 2
SYMATTR InstName C4
SYMATTR Value 2µ2
SYMBOL res 752 144 R0
SYMATTR InstName R21
SYMATTR Value 12
SYMBOL cap 832 272 R0
SYMATTR InstName C5
SYMATTR Value 10µ
SYMBOL voltage -320 432 R0
WINDOW 123 0 0 Left 0
WINDOW 39 0 0 Left 0
SYMATTR InstName V1
SYMATTR Value 0
TEXT -320 144 Left 2 !;ac dec 100 100 1MEG
TEXT -320 112 Left 2 !;tran 80u
TEXT -336 -232 Left 2 !.tran 8m
TEXT -336 -200 Left 2 !.option plotwinsize=0
TEXT -336 -168 Left 2 !.maxstep=0.48831106u
TEXT -336 -136 Left 2 !.four 1kHz 10 4 v(output)
TEXT -336 -104 Left 2 !;maxstep=0.12207776u
