Version 4
SHEET 1 1400 680
WIRE 480 48 64 48
WIRE 64 112 64 48
WIRE 480 144 480 128
WIRE 480 144 240 144
WIRE 544 144 480 144
WIRE 480 160 480 144
WIRE 240 176 240 144
WIRE 544 192 544 144
WIRE 240 272 240 256
WIRE 64 384 64 192
WIRE 160 384 64 384
WIRE 240 384 240 336
WIRE 240 384 160 384
WIRE 480 384 480 240
WIRE 480 384 240 384
WIRE 544 384 544 272
WIRE 544 384 480 384
WIRE 160 400 160 384
FLAG 160 400 0
SYMBOL voltage 64 96 R0
WINDOW 123 24 124 Left 2
WINDOW 39 0 0 Left 0
SYMATTR Value2 AC 1
SYMATTR InstName V1
SYMATTR Value ""
SYMBOL res 496 256 R180
WINDOW 0 36 76 Left 2
WINDOW 3 36 40 Left 2
SYMATTR InstName R2
SYMATTR Value {Rbottom}
SYMBOL res 496 144 R180
WINDOW 0 36 76 Left 2
WINDOW 3 36 40 Left 2
SYMATTR InstName R3
SYMATTR Value {Rtop}
SYMBOL cap 224 272 R0
SYMATTR InstName C3
SYMATTR Value 750n
SYMBOL res 528 176 R0
SYMATTR InstName R1
SYMATTR Value 50k
SYMBOL res 224 160 R0
SYMATTR InstName R7
SYMATTR Value 1k
TEXT 592 312 Left 2 !.step param Rbottom 1k 10k 1k
TEXT 592 376 Left 2 !.ac oct 10 10 20k
TEXT 592 344 Left 2 !.param Rtop=10k+1m-Rbottom
