Version 4
SHEET 1 1588 680
WIRE 656 -224 592 -224
WIRE 784 -128 704 -128
WIRE 928 -128 864 -128
WIRE 592 -16 592 -224
WIRE 592 -16 544 -16
WIRE 656 -16 592 -16
WIRE 704 -16 704 -128
WIRE 704 -16 656 -16
WIRE 928 -16 928 -128
WIRE 928 -16 880 -16
WIRE 656 16 656 -16
WIRE 272 48 160 48
WIRE 336 48 272 48
WIRE 416 48 336 48
WIRE 464 48 416 48
WIRE 928 48 928 -16
WIRE 1024 48 1024 -224
WIRE 1024 48 928 48
WIRE 1184 48 1024 48
WIRE 1248 48 1184 48
WIRE 1424 48 1248 48
WIRE -48 64 -160 64
WIRE 80 64 -48 64
WIRE 800 64 800 -16
WIRE 832 64 800 64
WIRE 1184 64 1184 48
WIRE 1248 64 1248 48
WIRE 1424 64 1424 48
WIRE -160 96 -160 64
WIRE -48 96 -48 64
WIRE 80 96 80 64
WIRE 544 112 544 -16
WIRE 656 112 656 96
WIRE 656 112 608 112
WIRE 720 112 720 32
WIRE 720 112 656 112
WIRE 656 128 656 112
WIRE 160 144 160 128
WIRE 208 144 160 144
WIRE 272 144 272 112
WIRE 336 144 336 112
WIRE 336 144 272 144
WIRE 368 144 336 144
WIRE 416 144 416 112
WIRE 544 144 544 112
WIRE 544 144 416 144
WIRE 1024 144 1024 128
WIRE 1024 144 992 144
WIRE 1184 144 1184 128
WIRE 1184 144 1024 144
WIRE 1248 144 1248 128
WIRE 1248 144 1184 144
WIRE 1424 144 1248 144
WIRE 160 160 160 144
WIRE 208 160 208 144
WIRE 1024 160 1024 144
WIRE 1184 160 1184 144
WIRE 1248 160 1248 144
WIRE 272 176 272 144
WIRE 336 176 336 144
WIRE 416 176 416 144
WIRE 832 176 832 144
WIRE 832 176 784 176
WIRE 912 176 832 176
WIRE 992 176 992 144
WIRE 912 192 912 176
WIRE -160 208 -160 176
WIRE -32 208 -160 208
WIRE 80 208 80 176
WIRE 80 208 -32 208
WIRE 720 208 720 192
WIRE -32 224 -32 208
WIRE 272 240 160 240
WIRE 336 240 272 240
WIRE 416 240 336 240
WIRE 464 240 416 240
WIRE 1024 240 992 240
WIRE 1088 240 1024 240
WIRE 1248 240 1248 224
WIRE 1248 240 1168 240
WIRE 784 256 784 176
WIRE 368 384 368 144
WIRE 992 384 992 240
WIRE 992 384 368 384
FLAG -32 224 0
FLAG 992 176 0
FLAG 208 160 0
FLAG 832 256 0
FLAG 720 304 0
FLAG 912 256 0
FLAG 656 208 0
SYMBOL ind2 96 192 R180
WINDOW 0 36 80 Left 2
WINDOW 3 36 40 Left 2
SYMATTR InstName L1
SYMATTR Value 5m
SYMATTR Type ind
SYMBOL ind2 176 256 R180
WINDOW 0 36 80 Left 2
WINDOW 3 36 40 Left 2
SYMATTR InstName L2
SYMATTR Value 100µ
SYMATTR Type ind
SYMBOL voltage -160 80 M0
WINDOW 123 24 124 Left 2
WINDOW 39 24 152 Left 2
SYMATTR Value2 AC 325
SYMATTR SpiceLine Rser=2
SYMATTR InstName V1
SYMATTR Value SINE(0 325 50)
SYMBOL ind2 176 144 R180
WINDOW 0 36 80 Left 2
WINDOW 3 36 40 Left 2
SYMATTR InstName L3
SYMATTR Value 100µ
SYMATTR Type ind
SYMBOL res 1008 32 R0
SYMATTR InstName R2
SYMATTR Value 10k
SYMBOL res 1008 144 R0
SYMATTR InstName R3
SYMATTR Value 10k
SYMBOL diode 320 176 R0
SYMATTR InstName D1
SYMBOL diode 400 48 R0
SYMATTR InstName D2
SYMBOL diode 352 112 R180
WINDOW 0 24 64 Left 2
WINDOW 3 24 0 Left 2
SYMATTR InstName D3
SYMBOL diode 432 240 R180
WINDOW 0 24 64 Left 2
WINDOW 3 24 0 Left 2
SYMATTR InstName D4
SYMBOL cap 1168 64 R0
SYMATTR InstName C1
SYMATTR Value 2m2
SYMATTR SpiceLine Rser=100m Lser=20n
SYMBOL cap 1168 160 R0
SYMATTR InstName C2
SYMATTR Value 2m2
SYMATTR SpiceLine Rser=100m Lser=20n
SYMBOL cap 1232 64 R0
SYMATTR InstName C3
SYMATTR Value 100µ
SYMATTR SpiceLine Rser=30m
SYMBOL cap 1232 160 R0
SYMATTR InstName C4
SYMATTR Value 100µ
SYMATTR SpiceLine Rser=30m
SYMBOL res 784 -32 M90
WINDOW 0 0 56 VBottom 2
WINDOW 3 32 56 VTop 2
SYMATTR InstName R9
SYMATTR Value 1
SYMBOL res 1184 224 R90
WINDOW 0 0 56 VBottom 2
WINDOW 3 32 56 VTop 2
SYMATTR InstName R10
SYMATTR Value 1m
SYMBOL cap -64 96 R0
SYMATTR InstName C5
SYMATTR Value 10µ
SYMBOL cap 288 48 M0
SYMATTR InstName C6
SYMATTR Value 100n
SYMBOL cap 288 176 M0
SYMATTR InstName C7
SYMATTR Value 100n
SYMBOL cap 448 48 R0
SYMATTR InstName C9
SYMATTR Value 100n
SYMBOL cap 448 176 R0
SYMATTR InstName C8
SYMATTR Value 100n
SYMBOL current 1424 64 R0
WINDOW 123 0 0 Left 0
WINDOW 39 0 0 Left 0
SYMATTR InstName I1
SYMATTR Value 100m
SYMBOL pmos 800 32 M270
SYMATTR InstName M1
SYMATTR Value HAT1072H
SYMBOL npn 784 208 M0
SYMATTR InstName Q1
SYMBOL res 816 48 R0
SYMATTR InstName R5
SYMATTR Value 56k
SYMBOL res 816 160 R0
SYMATTR InstName R6
SYMATTR Value 2k
SYMBOL cap 896 192 R0
SYMATTR InstName C10
SYMATTR Value 22µ
SYMBOL cap 544 128 R270
WINDOW 0 32 32 VTop 2
WINDOW 3 0 32 VBottom 2
SYMATTR InstName C11
SYMATTR Value 10µ
SYMBOL res 640 112 R0
SYMATTR InstName R1
SYMATTR Value 100k
SYMBOL res 768 -112 R270
WINDOW 0 32 56 VTop 2
WINDOW 3 0 56 VBottom 2
SYMATTR InstName R7
SYMATTR Value 20
SYMBOL res 640 0 R0
SYMATTR InstName R4
SYMATTR Value 10k
SYMBOL res 640 -240 M90
WINDOW 0 0 56 VBottom 2
WINDOW 3 32 56 VTop 2
SYMATTR InstName R8
SYMATTR Value 1
TEXT 40 0 Left 2 !K1 L1 L2 L3 1
TEXT -128 288 Left 2 !.tran 0 1.5 0 100u startup
