Version 4
SHEET 1 1112 680
WIRE -480 -176 -608 -176
WIRE -320 -176 -480 -176
WIRE -208 -176 -320 -176
WIRE -80 -176 -208 -176
WIRE 176 -176 -80 -176
WIRE 432 -176 176 -176
WIRE 496 -176 432 -176
WIRE -608 -144 -608 -176
WIRE 368 -128 272 -128
WIRE -480 -96 -544 -96
WIRE 496 -96 496 -176
WIRE 192 -80 112 -80
WIRE 272 -80 272 -128
WIRE 272 -80 256 -80
WIRE -544 -48 -608 -48
WIRE 432 -48 432 -80
WIRE -608 -16 -608 -48
WIRE -208 -16 -208 -176
WIRE 544 0 496 0
WIRE 624 0 608 0
WIRE 656 0 624 0
WIRE 176 16 176 -176
WIRE 384 16 176 16
WIRE -480 32 -480 0
WIRE -272 32 -480 32
WIRE -480 48 -480 32
WIRE 496 48 496 0
WIRE -208 80 -384 80
WIRE 32 80 -208 80
WIRE -784 96 -1040 96
WIRE -720 96 -784 96
WIRE -560 96 -576 96
WIRE -544 96 -560 96
WIRE -208 96 -208 80
WIRE 432 96 384 96
WIRE -784 128 -784 96
WIRE 176 128 176 16
WIRE -720 144 -720 96
WIRE -656 144 -656 96
WIRE -656 144 -720 144
WIRE -320 144 -320 -96
WIRE -272 144 -320 144
WIRE 496 144 448 144
WIRE 1008 144 1008 112
WIRE -560 160 -560 96
WIRE -464 160 -560 160
WIRE -384 160 -384 80
WIRE 112 160 112 -80
WIRE 112 160 32 160
WIRE -208 192 -256 192
WIRE 272 208 272 0
WIRE 272 208 176 208
WIRE 176 224 176 208
WIRE 272 224 272 208
WIRE 384 224 384 192
WIRE 448 224 384 224
WIRE 496 224 448 224
WIRE 1008 224 1008 208
WIRE -480 240 -480 144
WIRE -432 240 -480 240
WIRE -432 256 -432 240
WIRE -464 320 -480 320
WIRE -432 320 -464 320
FLAG -784 208 0
FLAG -560 240 0
FLAG -464 320 0
FLAG -208 272 0
FLAG 1008 224 0
FLAG -80 -96 0
FLAG 448 224 0
FLAG 736 80 0
FLAG 272 288 0
FLAG 176 304 0
FLAG 32 240 0
FLAG -320 240 0
FLAG -1040 208 0
FLAG -688 -16 0
FLAG 624 0 out
SYMBOL voltage -784 112 M0
WINDOW 123 0 0 Left 0
WINDOW 39 24 124 Left 2
SYMATTR InstName V1
SYMATTR Value SINE(0 500m 1k)
SYMBOL cap -656 80 R90
WINDOW 0 0 32 VBottom 2
WINDOW 3 32 32 VTop 2
SYMATTR InstName C1
SYMATTR Value 13µ3
SYMBOL res -560 80 R90
WINDOW 0 0 56 VBottom 2
WINDOW 3 32 56 VTop 2
SYMATTR InstName R1
SYMATTR Value 5k1
SYMBOL cap -448 256 R0
SYMATTR InstName C2
SYMATTR Value 10µ
SYMBOL res -544 144 M0
SYMATTR InstName R2
SYMATTR Value 10k
SYMBOL res 16 64 R0
SYMATTR InstName R3
SYMATTR Value 1m
SYMBOL npn -544 48 R0
SYMATTR InstName Q2
SYMATTR Value 2N2222
SYMBOL res -464 336 R180
WINDOW 0 36 76 Left 2
WINDOW 3 36 40 Left 2
SYMATTR InstName R4
SYMATTR Value 5k1
SYMBOL npn -272 96 R0
SYMATTR InstName Q3
SYMATTR Value 2N2222
SYMBOL res -224 176 R0
SYMATTR InstName R6
SYMATTR Value 100
SYMBOL res -336 -192 R0
SYMATTR InstName R7
SYMATTR Value 22k
SYMBOL npn -272 -16 R0
SYMATTR InstName Q5
SYMATTR Value 2N2222
SYMBOL res -368 144 R90
WINDOW 0 0 56 VBottom 2
WINDOW 3 32 56 VTop 2
SYMATTR InstName R9
SYMATTR Value 22k
SYMBOL diode 992 48 R0
SYMATTR InstName D1
SYMATTR Value 1N4148
SYMBOL diode 992 144 R0
SYMATTR InstName D2
SYMATTR Value 1N4148
SYMBOL voltage -80 -192 R0
WINDOW 123 0 0 Left 0
WINDOW 39 24 44 Left 2
SYMATTR InstName V2
SYMATTR Value 22
SYMBOL cap 256 -96 R90
WINDOW 0 0 32 VBottom 2
WINDOW 3 32 32 VTop 2
SYMATTR InstName C5
SYMATTR Value 3µ3
SYMBOL npn 432 48 R0
SYMATTR InstName Q1
SYMBOL npn 448 96 M0
SYMATTR InstName Q4
SYMBOL res 480 128 R0
SYMATTR InstName R5
SYMATTR Value 6R7
SYMBOL res 368 0 R0
SYMATTR InstName R10
SYMATTR Value 2k2
SYMBOL cap 608 -16 R90
WINDOW 0 0 32 VBottom 2
WINDOW 3 32 32 VTop 2
SYMATTR InstName C6
SYMATTR Value 470µ
SYMBOL res 256 -96 R0
SYMATTR InstName R11
SYMATTR Value 100k
SYMBOL cap 256 224 R0
SYMATTR InstName C7
SYMATTR Value 10µ
SYMBOL npn 368 -176 R0
SYMATTR InstName Q6
SYMBOL res 752 -16 R90
WINDOW 0 0 56 VBottom 2
WINDOW 3 32 56 VTop 2
SYMATTR InstName R12
SYMATTR Value 15
SYMBOL npn 432 -96 R0
SYMATTR InstName Q7
SYMBOL res 160 112 R0
SYMATTR InstName R13
SYMATTR Value 22k
SYMBOL res 160 208 R0
SYMATTR InstName R15
SYMATTR Value 47k
SYMBOL res 720 -16 R0
SYMATTR InstName R16
SYMATTR Value 250
SYMBOL res 16 144 R0
SYMATTR InstName R17
SYMATTR Value 10k
SYMBOL npn -256 144 M0
SYMATTR InstName Q8
SYMATTR Value 2N2222
SYMBOL voltage -1040 112 R0
WINDOW 123 24 124 Left 2
WINDOW 39 0 0 Left 0
SYMATTR Value2 AC 1
SYMATTR InstName V3
SYMATTR Value ""
SYMBOL pnp -544 -48 R180
SYMATTR InstName Q9
SYMBOL pnp -544 0 M180
SYMATTR InstName Q10
SYMBOL res -496 -192 R0
SYMATTR InstName R8
SYMATTR Value 2k2
SYMBOL res -592 -32 R90
WINDOW 0 0 56 VBottom 2
WINDOW 3 32 56 VTop 2
SYMATTR InstName R14
SYMATTR Value 22k
TEXT -1080 -80 Left 2 !.tran 0 40m 10m 100n
TEXT -1080 -40 Left 2 !.four 1k V(out)
TEXT -1080 0 Left 2 !.option plotwinsize=0
TEXT -1080 -120 Left 2 !;.ac oct 8 10 20k
